Version 4
SHEET 1 1244 680
WIRE 128 80 48 80
WIRE 240 80 208 80
WIRE 48 128 48 80
WIRE 240 128 240 80
WIRE 48 240 48 208
WIRE 240 240 240 192
FLAG 240 240 0
FLAG 48 240 0
SYMBOL voltage 48 112 R0
WINDOW 123 0 0 Left 0
WINDOW 39 0 0 Left 0
SYMATTR InstName V1
SYMATTR Value PWL file=Z:\home\sharpe\Documents\Projects\ECE-Synthesizer-Spring-2023\Simulations\outs.pwl
SYMBOL res 224 64 R90
WINDOW 0 0 56 VBottom 2
WINDOW 3 32 56 VTop 2
SYMATTR InstName R1
SYMATTR Value 8.2k
SYMBOL cap 224 128 R0
SYMATTR InstName C1
SYMATTR Value 1n
TEXT 14 264 Left 2 !.tran 400U
